t-BuBrettPhos
 OpenBabel07172113533D

 83 84  0  0  0  0  0  0  0  0999 V2000
    3.1428   -3.6172   -0.4543 H   0  0  0  0  0  0  0  0  0  0  0  0
    2.3119   -2.9395   -0.2994 C   0  0  0  0  0  0  0  0  0  0  0  0
    0.1165   -1.2143    0.0570 C   0  0  0  0  0  0  0  0  0  0  0  0
    2.4918   -1.5597   -0.3449 C   0  0  0  0  0  0  0  0  0  0  0  0
    1.0536   -3.4720   -0.0261 C   0  0  0  0  0  0  0  0  0  0  0  0
   -0.0296   -2.6219    0.1617 C   0  0  0  0  0  0  0  0  0  0  0  0
    1.4114   -0.6609   -0.1418 C   0  0  0  0  0  0  0  0  0  0  0  0
    0.9401   -4.5479    0.0352 H   0  0  0  0  0  0  0  0  0  0  0  0
    1.6091    1.2088    0.0734 P   0  0  0  0  0  0  0  0  0  0  0  0
   -1.1635   -0.4080    0.1429 C   0  0  0  0  0  0  0  0  0  0  0  0
   -3.6109    1.0233    0.2974 C   0  0  0  0  0  0  0  0  0  0  0  0
   -1.6223    0.0947    1.3815 C   0  0  0  0  0  0  0  0  0  0  0  0
   -1.9767   -0.2506   -1.0126 C   0  0  0  0  0  0  0  0  0  0  0  0
   -3.1693    0.4732   -0.9076 C   0  0  0  0  0  0  0  0  0  0  0  0
   -2.8268    0.8059    1.4284 C   0  0  0  0  0  0  0  0  0  0  0  0
   -3.7806    0.6007   -1.7966 H   0  0  0  0  0  0  0  0  0  0  0  0
   -3.1705    1.1997    2.3820 H   0  0  0  0  0  0  0  0  0  0  0  0
   -0.8874   -0.1750    2.6920 C   0  0  0  0  0  0  0  0  0  0  0  0
    0.1151   -0.5344    2.4424 H   0  0  0  0  0  0  0  0  0  0  0  0
   -0.7273    1.0806    3.5676 C   0  0  0  0  0  0  0  0  0  0  0  0
   -1.6865    1.4134    3.9813 H   0  0  0  0  0  0  0  0  0  0  0  0
   -0.3017    1.9112    2.9967 H   0  0  0  0  0  0  0  0  0  0  0  0
   -0.0664    0.8702    4.4174 H   0  0  0  0  0  0  0  0  0  0  0  0
   -1.5884   -1.2968    3.4868 C   0  0  0  0  0  0  0  0  0  0  0  0
   -1.6809   -2.2048    2.8844 H   0  0  0  0  0  0  0  0  0  0  0  0
   -2.5973   -0.9887    3.7878 H   0  0  0  0  0  0  0  0  0  0  0  0
   -1.0247   -1.5364    4.3975 H   0  0  0  0  0  0  0  0  0  0  0  0
   -4.9066    1.8189    0.3851 C   0  0  0  0  0  0  0  0  0  0  0  0
   -5.0312    2.1161    1.4356 H   0  0  0  0  0  0  0  0  0  0  0  0
   -6.1332    0.9715   -0.0015 C   0  0  0  0  0  0  0  0  0  0  0  0
   -6.2044    0.0725    0.6206 H   0  0  0  0  0  0  0  0  0  0  0  0
   -6.0808    0.6491   -1.0483 H   0  0  0  0  0  0  0  0  0  0  0  0
   -7.0580    1.5481    0.1226 H   0  0  0  0  0  0  0  0  0  0  0  0
   -4.8412    3.1098   -0.4531 C   0  0  0  0  0  0  0  0  0  0  0  0
   -4.7296    2.8846   -1.5205 H   0  0  0  0  0  0  0  0  0  0  0  0
   -3.9908    3.7321   -0.1538 H   0  0  0  0  0  0  0  0  0  0  0  0
   -5.7579    3.6994   -0.3304 H   0  0  0  0  0  0  0  0  0  0  0  0
   -1.6556   -0.9115   -2.3578 C   0  0  0  0  0  0  0  0  0  0  0  0
   -0.5864   -1.1489   -2.3723 H   0  0  0  0  0  0  0  0  0  0  0  0
   -1.9578   -0.0252   -3.5830 C   0  0  0  0  0  0  0  0  0  0  0  0
   -1.5381   -0.4848   -4.4859 H   0  0  0  0  0  0  0  0  0  0  0  0
   -1.5402    0.9798   -3.4872 H   0  0  0  0  0  0  0  0  0  0  0  0
   -3.0366    0.0750   -3.7503 H   0  0  0  0  0  0  0  0  0  0  0  0
   -2.4261   -2.2415   -2.5151 C   0  0  0  0  0  0  0  0  0  0  0  0
   -2.1475   -2.7369   -3.4539 H   0  0  0  0  0  0  0  0  0  0  0  0
   -3.5068   -2.0548   -2.5419 H   0  0  0  0  0  0  0  0  0  0  0  0
   -2.2263   -2.9214   -1.6856 H   0  0  0  0  0  0  0  0  0  0  0  0
    3.7243   -1.0028   -0.5695 O   0  0  0  0  0  0  0  0  0  0  0  0
   -1.2909   -3.0769    0.4659 O   0  0  0  0  0  0  0  0  0  0  0  0
    4.8238   -1.8573   -0.8318 C   0  0  0  0  0  0  0  0  0  0  0  0
    5.6774   -1.1997   -1.0075 H   0  0  0  0  0  0  0  0  0  0  0  0
    4.6529   -2.4735   -1.7243 H   0  0  0  0  0  0  0  0  0  0  0  0
    5.0437   -2.5121    0.0219 H   0  0  0  0  0  0  0  0  0  0  0  0
   -1.4769   -4.4707    0.6451 C   0  0  0  0  0  0  0  0  0  0  0  0
   -0.8440   -4.8623    1.4528 H   0  0  0  0  0  0  0  0  0  0  0  0
   -1.2717   -5.0310   -0.2773 H   0  0  0  0  0  0  0  0  0  0  0  0
   -2.5269   -4.5976    0.9151 H   0  0  0  0  0  0  0  0  0  0  0  0
    2.0837    1.9429   -1.6474 C   0  0  0  0  0  0  0  0  0  0  0  0
    2.2501    3.4659   -1.4532 C   0  0  0  0  0  0  0  0  0  0  0  0
    0.8388    1.7170   -2.5238 C   0  0  0  0  0  0  0  0  0  0  0  0
    3.1588    3.7231   -0.9013 H   0  0  0  0  0  0  0  0  0  0  0  0
    0.6999    0.6552   -2.7435 H   0  0  0  0  0  0  0  0  0  0  0  0
    3.0774    1.5055    1.3259 C   0  0  0  0  0  0  0  0  0  0  0  0
    3.0817    0.3762    2.3735 C   0  0  0  0  0  0  0  0  0  0  0  0
    2.6901    2.8189    2.0506 C   0  0  0  0  0  0  0  0  0  0  0  0
    2.0907    0.2133    2.8086 H   0  0  0  0  0  0  0  0  0  0  0  0
    1.7185    2.7372    2.5458 H   0  0  0  0  0  0  0  0  0  0  0  0
    3.4322   -0.5698    1.9545 H   0  0  0  0  0  0  0  0  0  0  0  0
    2.6436    3.6722    1.3664 H   0  0  0  0  0  0  0  0  0  0  0  0
    4.5070    1.6784    0.7817 C   0  0  0  0  0  0  0  0  0  0  0  0
    4.5948    2.5395    0.1130 H   0  0  0  0  0  0  0  0  0  0  0  0
    4.8520    0.7915    0.2523 H   0  0  0  0  0  0  0  0  0  0  0  0
    3.7578    0.6491    3.1959 H   0  0  0  0  0  0  0  0  0  0  0  0
    3.4433    3.0511    2.8165 H   0  0  0  0  0  0  0  0  0  0  0  0
    5.1890    1.8594    1.6254 H   0  0  0  0  0  0  0  0  0  0  0  0
    3.2986    1.3825   -2.4064 C   0  0  0  0  0  0  0  0  0  0  0  0
    3.1797    0.3178   -2.6198 H   0  0  0  0  0  0  0  0  0  0  0  0
    4.2359    1.5141   -1.8640 H   0  0  0  0  0  0  0  0  0  0  0  0
    3.3927    1.9092   -3.3678 H   0  0  0  0  0  0  0  0  0  0  0  0
    1.3948    3.9015   -0.9244 H   0  0  0  0  0  0  0  0  0  0  0  0
   -0.0718    2.0890   -2.0435 H   0  0  0  0  0  0  0  0  0  0  0  0
    2.3183    3.9519   -2.4361 H   0  0  0  0  0  0  0  0  0  0  0  0
    0.9597    2.2408   -3.4824 H   0  0  0  0  0  0  0  0  0  0  0  0
  1  2  1  0  0  0  0
  2  5  1  0  0  0  0
  3 10  1  0  0  0  0
  3  6  1  0  0  0  0
  4  2  2  0  0  0  0
  4  7  1  0  0  0  0
  5  8  1  0  0  0  0
  5  6  2  0  0  0  0
  6 49  1  0  0  0  0
  7  3  2  0  0  0  0
  7  9  1  0  0  0  0
  9 63  1  0  0  0  0
 10 12  1  0  0  0  0
 11 28  1  0  0  0  0
 11 15  1  0  0  0  0
 12 15  2  0  0  0  0
 12 18  1  0  0  0  0
 13 14  1  0  0  0  0
 13 10  2  0  0  0  0
 14 11  2  0  0  0  0
 15 17  1  0  0  0  0
 16 14  1  0  0  0  0
 18 24  1  0  0  0  0
 18 20  1  0  0  0  0
 19 18  1  0  0  0  0
 20 21  1  0  0  0  0
 20 23  1  0  0  0  0
 22 20  1  0  0  0  0
 24 26  1  0  0  0  0
 24 27  1  0  0  0  0
 25 24  1  0  0  0  0
 28 29  1  0  0  0  0
 30 33  1  0  0  0  0
 30 28  1  0  0  0  0
 30 31  1  0  0  0  0
 32 30  1  0  0  0  0
 34 37  1  0  0  0  0
 34 36  1  0  0  0  0
 34 28  1  0  0  0  0
 35 34  1  0  0  0  0
 38 13  1  0  0  0  0
 39 38  1  0  0  0  0
 40 42  1  0  0  0  0
 40 38  1  0  0  0  0
 41 40  1  0  0  0  0
 43 40  1  0  0  0  0
 44 38  1  0  0  0  0
 44 47  1  0  0  0  0
 45 44  1  0  0  0  0
 46 44  1  0  0  0  0
 48  4  1  0  0  0  0
 49 54  1  0  0  0  0
 50 48  1  0  0  0  0
 50 53  1  0  0  0  0
 51 50  1  0  0  0  0
 52 50  1  0  0  0  0
 54 57  1  0  0  0  0
 54 55  1  0  0  0  0
 56 54  1  0  0  0  0
 58 59  1  0  0  0  0
 58  9  1  0  0  0  0
 59 80  1  0  0  0  0
 59 61  1  0  0  0  0
 60 81  1  0  0  0  0
 60 58  1  0  0  0  0
 62 60  1  0  0  0  0
 63 65  1  0  0  0  0
 63 64  1  0  0  0  0
 64 66  1  0  0  0  0
 64 73  1  0  0  0  0
 65 67  1  0  0  0  0
 65 74  1  0  0  0  0
 68 64  1  0  0  0  0
 69 65  1  0  0  0  0
 70 63  1  0  0  0  0
 70 75  1  0  0  0  0
 71 70  1  0  0  0  0
 72 70  1  0  0  0  0
 76 78  1  0  0  0  0
 76 58  1  0  0  0  0
 77 76  1  0  0  0  0
 79 76  1  0  0  0  0
 82 59  1  0  0  0  0
 83 60  1  0  0  0  0
M  END
$$$$
