t-BuXPhos
 OpenBabel07172113533D

 75 76  0  0  0  0  0  0  0  0999 V2000
   -3.2415    1.2068    3.8321 H   0  0  0  0  0  0  0  0  0  0  0  0
   -2.4024    0.9366    3.1966 C   0  0  0  0  0  0  0  0  0  0  0  0
   -0.2398    0.2607    1.5162 C   0  0  0  0  0  0  0  0  0  0  0  0
   -2.6073    0.6991    1.8354 C   0  0  0  0  0  0  0  0  0  0  0  0
   -1.1342    0.8082    3.7365 C   0  0  0  0  0  0  0  0  0  0  0  0
   -0.0701    0.4712    2.9054 C   0  0  0  0  0  0  0  0  0  0  0  0
   -1.5570    0.3376    0.9678 C   0  0  0  0  0  0  0  0  0  0  0  0
   -3.6227    0.7959    1.4678 H   0  0  0  0  0  0  0  0  0  0  0  0
   -0.9676    0.9731    4.7971 H   0  0  0  0  0  0  0  0  0  0  0  0
    0.9215    0.3713    3.3440 H   0  0  0  0  0  0  0  0  0  0  0  0
   -1.9316   -0.0854   -0.7727 P   0  0  0  0  0  0  0  0  0  0  0  0
    0.9996   -0.0299    0.7350 C   0  0  0  0  0  0  0  0  0  0  0  0
    3.4083   -0.5863   -0.7036 C   0  0  0  0  0  0  0  0  0  0  0  0
    1.8793    1.0290    0.3415 C   0  0  0  0  0  0  0  0  0  0  0  0
    1.3909   -1.3733    0.4593 C   0  0  0  0  0  0  0  0  0  0  0  0
    2.5792   -1.6183   -0.2633 C   0  0  0  0  0  0  0  0  0  0  0  0
    3.0562    0.7234   -0.3761 C   0  0  0  0  0  0  0  0  0  0  0  0
    2.8820   -2.6438   -0.4638 H   0  0  0  0  0  0  0  0  0  0  0  0
    3.7313    1.5255   -0.6646 H   0  0  0  0  0  0  0  0  0  0  0  0
    1.6496    2.4894    0.7498 C   0  0  0  0  0  0  0  0  0  0  0  0
    0.5976    2.6327    1.0142 H   0  0  0  0  0  0  0  0  0  0  0  0
    2.4968    2.8423    1.9796 C   0  0  0  0  0  0  0  0  0  0  0  0
    3.5691    2.7792    1.7614 H   0  0  0  0  0  0  0  0  0  0  0  0
    2.2968    2.1705    2.8186 H   0  0  0  0  0  0  0  0  0  0  0  0
    2.2836    3.8636    2.3136 H   0  0  0  0  0  0  0  0  0  0  0  0
    1.9509    3.5039   -0.3660 C   0  0  0  0  0  0  0  0  0  0  0  0
    3.0265    3.6292   -0.5320 H   0  0  0  0  0  0  0  0  0  0  0  0
    1.5529    4.4889   -0.0972 H   0  0  0  0  0  0  0  0  0  0  0  0
    1.5035    3.2077   -1.3182 H   0  0  0  0  0  0  0  0  0  0  0  0
    4.6760   -0.9072   -1.4744 C   0  0  0  0  0  0  0  0  0  0  0  0
    4.7120   -1.9900   -1.6535 H   0  0  0  0  0  0  0  0  0  0  0  0
    5.9261   -0.5403   -0.6710 C   0  0  0  0  0  0  0  0  0  0  0  0
    5.9248   -1.0392    0.3046 H   0  0  0  0  0  0  0  0  0  0  0  0
    5.9969    0.5384   -0.4936 H   0  0  0  0  0  0  0  0  0  0  0  0
    6.8313   -0.8499   -1.2045 H   0  0  0  0  0  0  0  0  0  0  0  0
    4.6916   -0.2308   -2.8480 C   0  0  0  0  0  0  0  0  0  0  0  0
    4.7248    0.8611   -2.7685 H   0  0  0  0  0  0  0  0  0  0  0  0
    3.7990   -0.4969   -3.4252 H   0  0  0  0  0  0  0  0  0  0  0  0
    5.5689   -0.5479   -3.4222 H   0  0  0  0  0  0  0  0  0  0  0  0
    0.6216   -2.5767    1.0062 C   0  0  0  0  0  0  0  0  0  0  0  0
   -0.3659   -2.2596    1.3481 H   0  0  0  0  0  0  0  0  0  0  0  0
    1.3440   -3.1622    2.2245 C   0  0  0  0  0  0  0  0  0  0  0  0
    0.7633   -3.9829    2.6594 H   0  0  0  0  0  0  0  0  0  0  0  0
    1.4844   -2.4035    3.0022 H   0  0  0  0  0  0  0  0  0  0  0  0
    2.3327   -3.5547    1.9615 H   0  0  0  0  0  0  0  0  0  0  0  0
    0.3818   -3.6695   -0.0443 C   0  0  0  0  0  0  0  0  0  0  0  0
   -0.2994   -4.4320    0.3495 H   0  0  0  0  0  0  0  0  0  0  0  0
    1.3043   -4.1846   -0.3310 H   0  0  0  0  0  0  0  0  0  0  0  0
   -0.0668   -3.2523   -0.9520 H   0  0  0  0  0  0  0  0  0  0  0  0
   -2.3879    1.4936   -1.6549 C   0  0  0  0  0  0  0  0  0  0  0  0
   -2.8148    1.2098   -3.1083 C   0  0  0  0  0  0  0  0  0  0  0  0
   -1.1135    2.3599   -1.7473 C   0  0  0  0  0  0  0  0  0  0  0  0
   -2.0798    0.5912   -3.6371 H   0  0  0  0  0  0  0  0  0  0  0  0
   -0.2776    1.8150   -2.2022 H   0  0  0  0  0  0  0  0  0  0  0  0
   -3.7832    0.7081   -3.1689 H   0  0  0  0  0  0  0  0  0  0  0  0
   -0.8034    2.7055   -0.7579 H   0  0  0  0  0  0  0  0  0  0  0  0
   -3.3354   -1.3205   -0.8256 C   0  0  0  0  0  0  0  0  0  0  0  0
   -3.2058   -2.1195   -2.1483 C   0  0  0  0  0  0  0  0  0  0  0  0
   -4.7571   -0.7543   -0.7562 C   0  0  0  0  0  0  0  0  0  0  0  0
   -3.3533   -1.4944   -3.0332 H   0  0  0  0  0  0  0  0  0  0  0  0
   -4.9981   -0.1168   -1.6092 H   0  0  0  0  0  0  0  0  0  0  0  0
   -2.2217   -2.5948   -2.2424 H   0  0  0  0  0  0  0  0  0  0  0  0
   -4.9432   -0.1881    0.1584 H   0  0  0  0  0  0  0  0  0  0  0  0
   -2.9188    2.1423   -3.6769 H   0  0  0  0  0  0  0  0  0  0  0  0
   -1.2841    3.2583   -2.3532 H   0  0  0  0  0  0  0  0  0  0  0  0
   -5.4979   -1.5642   -0.7719 H   0  0  0  0  0  0  0  0  0  0  0  0
   -3.9555   -2.9188   -2.1989 H   0  0  0  0  0  0  0  0  0  0  0  0
   -3.2029   -2.3588    0.3110 C   0  0  0  0  0  0  0  0  0  0  0  0
   -3.3088   -1.9125    1.3040 H   0  0  0  0  0  0  0  0  0  0  0  0
   -2.2455   -2.8810    0.2747 H   0  0  0  0  0  0  0  0  0  0  0  0
   -3.9806   -3.1289    0.2316 H   0  0  0  0  0  0  0  0  0  0  0  0
   -3.4578    2.3569   -0.9729 C   0  0  0  0  0  0  0  0  0  0  0  0
   -3.1331    2.7164    0.0088 H   0  0  0  0  0  0  0  0  0  0  0  0
   -4.4095    1.8426   -0.8396 H   0  0  0  0  0  0  0  0  0  0  0  0
   -3.6707    3.2517   -1.5717 H   0  0  0  0  0  0  0  0  0  0  0  0
  2  5  1  0  0  0  0
  2  1  1  0  0  0  0
  3  6  1  0  0  0  0
  4  2  2  0  0  0  0
  5  9  1  0  0  0  0
  6 10  1  0  0  0  0
  6  5  2  0  0  0  0
  7  3  2  0  0  0  0
  7  4  1  0  0  0  0
  8  4  1  0  0  0  0
 11  7  1  0  0  0  0
 12  3  1  0  0  0  0
 13 17  2  0  0  0  0
 13 16  1  0  0  0  0
 14 12  2  0  0  0  0
 14 20  1  0  0  0  0
 15 12  1  0  0  0  0
 15 40  1  0  0  0  0
 16 15  2  0  0  0  0
 17 14  1  0  0  0  0
 18 16  1  0  0  0  0
 19 17  1  0  0  0  0
 20 21  1  0  0  0  0
 20 22  1  0  0  0  0
 22 25  1  0  0  0  0
 22 24  1  0  0  0  0
 23 22  1  0  0  0  0
 26 28  1  0  0  0  0
 26 20  1  0  0  0  0
 27 26  1  0  0  0  0
 29 26  1  0  0  0  0
 30 13  1  0  0  0  0
 30 32  1  0  0  0  0
 31 30  1  0  0  0  0
 32 34  1  0  0  0  0
 32 33  1  0  0  0  0
 35 32  1  0  0  0  0
 36 37  1  0  0  0  0
 36 30  1  0  0  0  0
 38 36  1  0  0  0  0
 39 36  1  0  0  0  0
 40 41  1  0  0  0  0
 40 42  1  0  0  0  0
 42 43  1  0  0  0  0
 42 44  1  0  0  0  0
 45 42  1  0  0  0  0
 46 47  1  0  0  0  0
 46 40  1  0  0  0  0
 48 46  1  0  0  0  0
 49 46  1  0  0  0  0
 50 72  1  0  0  0  0
 50 11  1  0  0  0  0
 51 50  1  0  0  0  0
 52 50  1  0  0  0  0
 52 56  1  0  0  0  0
 53 51  1  0  0  0  0
 54 52  1  0  0  0  0
 55 51  1  0  0  0  0
 57 11  1  0  0  0  0
 57 59  1  0  0  0  0
 57 68  1  0  0  0  0
 58 57  1  0  0  0  0
 59 63  1  0  0  0  0
 60 58  1  0  0  0  0
 61 59  1  0  0  0  0
 62 58  1  0  0  0  0
 64 51  1  0  0  0  0
 65 52  1  0  0  0  0
 66 59  1  0  0  0  0
 67 58  1  0  0  0  0
 68 69  1  0  0  0  0
 70 68  1  0  0  0  0
 71 68  1  0  0  0  0
 72 74  1  0  0  0  0
 72 73  1  0  0  0  0
 75 72  1  0  0  0  0
M  END
$$$$
