PCy3
 OpenBabel07172116153D

 52 54  0  0  0  0  0  0  0  0999 V2000
   -3.9080   -2.6100    0.4766 C   0  0  0  0  0  0  0  0  0  0  0  0
   -4.0888   -1.8972   -0.8808 C   0  0  0  0  0  0  0  0  0  0  0  0
   -3.0266   -0.8021   -1.1130 C   0  0  0  0  0  0  0  0  0  0  0  0
   -1.6755   -1.1797   -0.4780 C   0  0  0  0  0  0  0  0  0  0  0  0
   -1.8269   -1.2956    1.0607 C   0  0  0  0  0  0  0  0  0  0  0  0
   -3.2612   -1.6681    1.4923 C   0  0  0  0  0  0  0  0  0  0  0  0
   -0.3376   -0.0537   -1.1733 P   0  0  0  0  0  0  0  0  0  0  0  0
    1.2503   -0.9403   -0.6978 C   0  0  0  0  0  0  0  0  0  0  0  0
    2.4736   -0.1815   -1.2454 C   0  0  0  0  0  0  0  0  0  0  0  0
    3.7258   -1.0803   -1.2821 C   0  0  0  0  0  0  0  0  0  0  0  0
    3.7847   -2.0582   -0.0861 C   0  0  0  0  0  0  0  0  0  0  0  0
    2.9881   -1.5180    1.1031 C   0  0  0  0  0  0  0  0  0  0  0  0
    1.4904   -1.4251    0.7574 C   0  0  0  0  0  0  0  0  0  0  0  0
   -0.5447    1.5178   -0.1262 C   0  0  0  0  0  0  0  0  0  0  0  0
   -0.5404    2.7628   -1.0555 C   0  0  0  0  0  0  0  0  0  0  0  0
    0.8351    3.4294   -1.0919 C   0  0  0  0  0  0  0  0  0  0  0  0
    1.2085    3.9959    0.2963 C   0  0  0  0  0  0  0  0  0  0  0  0
    0.5371    3.2050    1.4378 C   0  0  0  0  0  0  0  0  0  0  0  0
    0.4115    1.7231    1.0720 C   0  0  0  0  0  0  0  0  0  0  0  0
   -3.2679   -3.4919    0.3559 H   0  0  0  0  0  0  0  0  0  0  0  0
   -4.8695   -2.9817    0.8424 H   0  0  0  0  0  0  0  0  0  0  0  0
   -4.0410   -2.6318   -1.6910 H   0  0  0  0  0  0  0  0  0  0  0  0
   -5.0853   -1.4466   -0.9353 H   0  0  0  0  0  0  0  0  0  0  0  0
   -3.3686    0.1462   -0.6822 H   0  0  0  0  0  0  0  0  0  0  0  0
   -2.9053   -0.6179   -2.1830 H   0  0  0  0  0  0  0  0  0  0  0  0
   -1.4001   -2.1650   -0.8767 H   0  0  0  0  0  0  0  0  0  0  0  0
   -1.5455   -0.3604    1.5504 H   0  0  0  0  0  0  0  0  0  0  0  0
   -1.1323   -2.0520    1.4313 H   0  0  0  0  0  0  0  0  0  0  0  0
   -3.8739   -0.7634    1.5813 H   0  0  0  0  0  0  0  0  0  0  0  0
   -3.2404   -2.1191    2.4891 H   0  0  0  0  0  0  0  0  0  0  0  0
    1.1559   -1.8363   -1.3274 H   0  0  0  0  0  0  0  0  0  0  0  0
    2.6712    0.6965   -0.6243 H   0  0  0  0  0  0  0  0  0  0  0  0
    2.2614    0.2019   -2.2470 H   0  0  0  0  0  0  0  0  0  0  0  0
    4.6181   -0.4459   -1.2924 H   0  0  0  0  0  0  0  0  0  0  0  0
    3.7434   -1.6452   -2.2196 H   0  0  0  0  0  0  0  0  0  0  0  0
    3.3627   -3.0281   -0.3748 H   0  0  0  0  0  0  0  0  0  0  0  0
    4.8237   -2.2529    0.1946 H   0  0  0  0  0  0  0  0  0  0  0  0
    3.3717   -0.5283    1.3783 H   0  0  0  0  0  0  0  0  0  0  0  0
    3.1245   -2.1516    1.9849 H   0  0  0  0  0  0  0  0  0  0  0  0
    1.0395   -2.4155    0.8697 H   0  0  0  0  0  0  0  0  0  0  0  0
    0.9917   -0.7844    1.4815 H   0  0  0  0  0  0  0  0  0  0  0  0
   -1.5607    1.4230    0.2719 H   0  0  0  0  0  0  0  0  0  0  0  0
   -1.2770    3.4897   -0.6932 H   0  0  0  0  0  0  0  0  0  0  0  0
   -0.8597    2.4800   -2.0609 H   0  0  0  0  0  0  0  0  0  0  0  0
    1.5780    2.6907   -1.4110 H   0  0  0  0  0  0  0  0  0  0  0  0
    0.8579    4.2225   -1.8444 H   0  0  0  0  0  0  0  0  0  0  0  0
    0.9158    5.0487    0.3623 H   0  0  0  0  0  0  0  0  0  0  0  0
    2.2961    3.9733    0.4220 H   0  0  0  0  0  0  0  0  0  0  0  0
    1.1084    3.3198    2.3641 H   0  0  0  0  0  0  0  0  0  0  0  0
   -0.4596    3.6110    1.6442 H   0  0  0  0  0  0  0  0  0  0  0  0
    0.0626    1.1453    1.9311 H   0  0  0  0  0  0  0  0  0  0  0  0
    1.4090    1.3450    0.8422 H   0  0  0  0  0  0  0  0  0  0  0  0
  1 21  1  0  0  0  0
  1  6  1  0  0  0  0
  2  1  1  0  0  0  0
  3  2  1  0  0  0  0
  3 24  1  0  0  0  0
  3  4  1  0  0  0  0
  4  5  1  0  0  0  0
  5 28  1  0  0  0  0
  5  6  1  0  0  0  0
  5 27  1  0  0  0  0
  6 29  1  0  0  0  0
  6 30  1  0  0  0  0
  7  8  1  0  0  0  0
  7  4  1  0  0  0  0
  7 14  1  0  0  0  0
  8 13  1  0  0  0  0
  9  8  1  0  0  0  0
  9 32  1  0  0  0  0
 10  9  1  0  0  0  0
 10 11  1  0  0  0  0
 11 37  1  0  0  0  0
 11 12  1  0  0  0  0
 12 38  1  0  0  0  0
 12 39  1  0  0  0  0
 13 40  1  0  0  0  0
 13 12  1  0  0  0  0
 13 41  1  0  0  0  0
 14 42  1  0  0  0  0
 14 19  1  0  0  0  0
 15 43  1  0  0  0  0
 15 14  1  0  0  0  0
 16 15  1  0  0  0  0
 16 17  1  0  0  0  0
 17 47  1  0  0  0  0
 17 48  1  0  0  0  0
 17 18  1  0  0  0  0
 18 50  1  0  0  0  0
 18 49  1  0  0  0  0
 19 18  1  0  0  0  0
 19 51  1  0  0  0  0
 20  1  1  0  0  0  0
 22  2  1  0  0  0  0
 23  2  1  0  0  0  0
 25  3  1  0  0  0  0
 26  4  1  0  0  0  0
 31  8  1  0  0  0  0
 33  9  1  0  0  0  0
 34 10  1  0  0  0  0
 35 10  1  0  0  0  0
 36 11  1  0  0  0  0
 44 15  1  0  0  0  0
 45 16  1  0  0  0  0
 46 16  1  0  0  0  0
 52 19  1  0  0  0  0
M  END
$$$$
