Po-Tol3
 OpenBabel07172116153D

 43 45  0  0  0  0  0  0  0  0999 V2000
    0.6381    1.5090    1.6723 C   0  0  0  0  0  0  0  0  0  0  0  0
   -0.1574    2.2181    0.6057 C   0  0  0  0  0  0  0  0  0  0  0  0
   -0.4266    3.5807    0.7753 C   0  0  0  0  0  0  0  0  0  0  0  0
   -1.1609    4.3105   -0.1540 C   0  0  0  0  0  0  0  0  0  0  0  0
   -1.6504    3.6804   -1.2922 C   0  0  0  0  0  0  0  0  0  0  0  0
   -1.3834    2.3298   -1.4860 C   0  0  0  0  0  0  0  0  0  0  0  0
   -0.6470    1.5813   -0.5569 C   0  0  0  0  0  0  0  0  0  0  0  0
   -0.4067   -0.1830   -1.0611 P   0  0  0  0  0  0  0  0  0  0  0  0
    1.3035   -0.5819   -0.4866 C   0  0  0  0  0  0  0  0  0  0  0  0
    1.5547   -1.5202    0.5203 C   0  0  0  0  0  0  0  0  0  0  0  0
    2.8535   -1.8448    0.8949 C   0  0  0  0  0  0  0  0  0  0  0  0
    3.9277   -1.2257    0.2632 C   0  0  0  0  0  0  0  0  0  0  0  0
    3.6884   -0.2946   -0.7424 C   0  0  0  0  0  0  0  0  0  0  0  0
    2.3906    0.0373   -1.1402 C   0  0  0  0  0  0  0  0  0  0  0  0
    2.1832    1.0613   -2.2265 C   0  0  0  0  0  0  0  0  0  0  0  0
   -1.4808   -1.1279    0.1029 C   0  0  0  0  0  0  0  0  0  0  0  0
   -2.2315   -0.4932    1.0989 C   0  0  0  0  0  0  0  0  0  0  0  0
   -3.0975   -1.2123    1.9168 C   0  0  0  0  0  0  0  0  0  0  0  0
   -3.2265   -2.5860    1.7440 C   0  0  0  0  0  0  0  0  0  0  0  0
   -2.5012   -3.2238    0.7421 C   0  0  0  0  0  0  0  0  0  0  0  0
   -1.6342   -2.5192   -0.0963 C   0  0  0  0  0  0  0  0  0  0  0  0
   -0.8916   -3.2508   -1.1852 C   0  0  0  0  0  0  0  0  0  0  0  0
    0.2161    0.5365    1.9222 H   0  0  0  0  0  0  0  0  0  0  0  0
    1.6679    1.3309    1.3548 H   0  0  0  0  0  0  0  0  0  0  0  0
    0.6683    2.1088    2.5841 H   0  0  0  0  0  0  0  0  0  0  0  0
   -0.0537    4.0780    1.6658 H   0  0  0  0  0  0  0  0  0  0  0  0
   -1.3504    5.3656    0.0148 H   0  0  0  0  0  0  0  0  0  0  0  0
   -2.2272    4.2332   -2.0260 H   0  0  0  0  0  0  0  0  0  0  0  0
   -1.7461    1.8352   -2.3814 H   0  0  0  0  0  0  0  0  0  0  0  0
    0.7222   -1.9841    1.0366 H   0  0  0  0  0  0  0  0  0  0  0  0
    3.0231   -2.5718    1.6825 H   0  0  0  0  0  0  0  0  0  0  0  0
    4.9465   -1.4672    0.5482 H   0  0  0  0  0  0  0  0  0  0  0  0
    4.5272    0.1862   -1.2373 H   0  0  0  0  0  0  0  0  0  0  0  0
    3.1173    1.2703   -2.7509 H   0  0  0  0  0  0  0  0  0  0  0  0
    1.8064    2.0056   -1.8230 H   0  0  0  0  0  0  0  0  0  0  0  0
    1.4484    0.7216   -2.9621 H   0  0  0  0  0  0  0  0  0  0  0  0
   -2.1463    0.5784    1.2297 H   0  0  0  0  0  0  0  0  0  0  0  0
   -3.6675   -0.6982    2.6838 H   0  0  0  0  0  0  0  0  0  0  0  0
   -3.8968   -3.1588    2.3765 H   0  0  0  0  0  0  0  0  0  0  0  0
   -2.6171   -4.2937    0.5958 H   0  0  0  0  0  0  0  0  0  0  0  0
   -0.9981   -2.7429   -2.1479 H   0  0  0  0  0  0  0  0  0  0  0  0
    0.1810   -3.3083   -0.9802 H   0  0  0  0  0  0  0  0  0  0  0  0
   -1.2647   -4.2704   -1.2953 H   0  0  0  0  0  0  0  0  0  0  0  0
  1 23  1  0  0  0  0
  1 25  1  0  0  0  0
  2  3  1  0  0  0  0
  2  1  1  0  0  0  0
  3 26  1  0  0  0  0
  4 27  1  0  0  0  0
  4  3  2  0  0  0  0
  5  4  1  0  0  0  0
  6  5  2  0  0  0  0
  6  7  1  0  0  0  0
  7  2  2  0  0  0  0
  8  7  1  0  0  0  0
  8  9  1  0  0  0  0
  8 16  1  0  0  0  0
  9 10  1  0  0  0  0
 10 11  2  0  0  0  0
 10 30  1  0  0  0  0
 11 31  1  0  0  0  0
 12 32  1  0  0  0  0
 12 11  1  0  0  0  0
 13 12  2  0  0  0  0
 14 13  1  0  0  0  0
 14  9  2  0  0  0  0
 15 35  1  0  0  0  0
 15 14  1  0  0  0  0
 16 17  1  0  0  0  0
 17 37  1  0  0  0  0
 17 18  2  0  0  0  0
 18 38  1  0  0  0  0
 19 18  1  0  0  0  0
 19 39  1  0  0  0  0
 20 19  2  0  0  0  0
 21 16  2  0  0  0  0
 21 20  1  0  0  0  0
 22 42  1  0  0  0  0
 22 21  1  0  0  0  0
 24  1  1  0  0  0  0
 28  5  1  0  0  0  0
 29  6  1  0  0  0  0
 33 13  1  0  0  0  0
 34 15  1  0  0  0  0
 36 15  1  0  0  0  0
 40 20  1  0  0  0  0
 41 22  1  0  0  0  0
 43 22  1  0  0  0  0
M  END
$$$$
