SPhos
 OpenBabel07172116153D

 64 67  0  0  0  0  0  0  0  0999 V2000
    2.6307   -3.0858    1.0203 C   0  0  0  0  0  0  0  0  0  0  0  0
    2.3920   -1.8932    0.2941 O   0  0  0  0  0  0  0  0  0  0  0  0
    2.7773   -0.7104    0.8458 C   0  0  0  0  0  0  0  0  0  0  0  0
    2.4364    0.4369    0.1123 C   0  0  0  0  0  0  0  0  0  0  0  0
    2.8397    1.6874    0.6015 C   0  0  0  0  0  0  0  0  0  0  0  0
    3.5266    1.8000    1.8146 C   0  0  0  0  0  0  0  0  0  0  0  0
    3.8265    0.6463    2.5285 C   0  0  0  0  0  0  0  0  0  0  0  0
    3.4647   -0.6102    2.0583 C   0  0  0  0  0  0  0  0  0  0  0  0
    2.4983    2.7585   -0.1720 O   0  0  0  0  0  0  0  0  0  0  0  0
    2.8286    4.0558    0.2876 C   0  0  0  0  0  0  0  0  0  0  0  0
    1.6938    0.3143   -1.1745 C   0  0  0  0  0  0  0  0  0  0  0  0
    2.3679    0.6066   -2.3638 C   0  0  0  0  0  0  0  0  0  0  0  0
    1.7465    0.4594   -3.5976 C   0  0  0  0  0  0  0  0  0  0  0  0
    0.4337    0.0009   -3.6531 C   0  0  0  0  0  0  0  0  0  0  0  0
   -0.2491   -0.2799   -2.4745 C   0  0  0  0  0  0  0  0  0  0  0  0
    0.3507   -0.1115   -1.2191 C   0  0  0  0  0  0  0  0  0  0  0  0
   -0.5421   -0.4204    0.3829 P   0  0  0  0  0  0  0  0  0  0  0  0
   -1.7629   -1.7517   -0.1144 C   0  0  0  0  0  0  0  0  0  0  0  0
   -2.7823   -1.9646    1.0289 C   0  0  0  0  0  0  0  0  0  0  0  0
   -3.3800   -3.3734    0.9730 C   0  0  0  0  0  0  0  0  0  0  0  0
   -2.2988   -4.4441    1.2339 C   0  0  0  0  0  0  0  0  0  0  0  0
   -0.9035   -3.9712    0.7792 C   0  0  0  0  0  0  0  0  0  0  0  0
   -0.9992   -3.0617   -0.4476 C   0  0  0  0  0  0  0  0  0  0  0  0
   -1.6607    1.0933    0.5119 C   0  0  0  0  0  0  0  0  0  0  0  0
   -0.8122    2.3743    0.7494 C   0  0  0  0  0  0  0  0  0  0  0  0
   -0.7175    3.2336   -0.5134 C   0  0  0  0  0  0  0  0  0  0  0  0
   -2.1070    3.7414   -0.9506 C   0  0  0  0  0  0  0  0  0  0  0  0
   -3.2243    2.7327   -0.6095 C   0  0  0  0  0  0  0  0  0  0  0  0
   -2.6833    1.2995   -0.6220 C   0  0  0  0  0  0  0  0  0  0  0  0
    3.7020   -3.2544    1.1708 H   0  0  0  0  0  0  0  0  0  0  0  0
    2.2213   -3.8891    0.4119 H   0  0  0  0  0  0  0  0  0  0  0  0
    2.1219   -3.0708    1.9886 H   0  0  0  0  0  0  0  0  0  0  0  0
    3.8244    2.7643    2.2024 H   0  0  0  0  0  0  0  0  0  0  0  0
    4.3573    0.7282    3.4713 H   0  0  0  0  0  0  0  0  0  0  0  0
    3.7168   -1.4905    2.6331 H   0  0  0  0  0  0  0  0  0  0  0  0
    2.4627    4.7410   -0.4743 H   0  0  0  0  0  0  0  0  0  0  0  0
    2.3401    4.2792    1.2419 H   0  0  0  0  0  0  0  0  0  0  0  0
    3.9111    4.1799    0.3962 H   0  0  0  0  0  0  0  0  0  0  0  0
    3.3972    0.9436   -2.3105 H   0  0  0  0  0  0  0  0  0  0  0  0
    2.2883    0.6872   -4.5098 H   0  0  0  0  0  0  0  0  0  0  0  0
   -0.0591   -0.1385   -4.6101 H   0  0  0  0  0  0  0  0  0  0  0  0
   -1.2666   -0.6435   -2.5411 H   0  0  0  0  0  0  0  0  0  0  0  0
   -2.3230   -1.4417   -1.0003 H   0  0  0  0  0  0  0  0  0  0  0  0
   -3.5711   -1.2105    0.9671 H   0  0  0  0  0  0  0  0  0  0  0  0
   -2.2995   -1.8197    2.0033 H   0  0  0  0  0  0  0  0  0  0  0  0
   -4.1968   -3.4735    1.6939 H   0  0  0  0  0  0  0  0  0  0  0  0
   -3.8277   -3.5255   -0.0157 H   0  0  0  0  0  0  0  0  0  0  0  0
   -2.5674   -5.3687    0.7124 H   0  0  0  0  0  0  0  0  0  0  0  0
   -2.2691   -4.6922    2.2999 H   0  0  0  0  0  0  0  0  0  0  0  0
   -0.2631   -4.8336    0.5706 H   0  0  0  0  0  0  0  0  0  0  0  0
   -0.4152   -3.4164    1.5868 H   0  0  0  0  0  0  0  0  0  0  0  0
   -1.5233   -3.5941   -1.2497 H   0  0  0  0  0  0  0  0  0  0  0  0
   -0.0046   -2.8342   -0.8380 H   0  0  0  0  0  0  0  0  0  0  0  0
   -2.2204    0.8930    1.4328 H   0  0  0  0  0  0  0  0  0  0  0  0
    0.1858    2.1134    1.1064 H   0  0  0  0  0  0  0  0  0  0  0  0
   -1.2721    2.9670    1.5489 H   0  0  0  0  0  0  0  0  0  0  0  0
   -0.0459    4.0785   -0.3416 H   0  0  0  0  0  0  0  0  0  0  0  0
   -0.2557    2.6454   -1.3097 H   0  0  0  0  0  0  0  0  0  0  0  0
   -2.3242    4.7016   -0.4704 H   0  0  0  0  0  0  0  0  0  0  0  0
   -2.0980    3.9345   -2.0284 H   0  0  0  0  0  0  0  0  0  0  0  0
   -3.6373    2.9479    0.3829 H   0  0  0  0  0  0  0  0  0  0  0  0
   -4.0570    2.8349   -1.3123 H   0  0  0  0  0  0  0  0  0  0  0  0
   -3.5011    0.5806   -0.5245 H   0  0  0  0  0  0  0  0  0  0  0  0
   -2.2209    1.1137   -1.5947 H   0  0  0  0  0  0  0  0  0  0  0  0
  1 30  1  0  0  0  0
  1 32  1  0  0  0  0
  2  3  1  0  0  0  0
  2  1  1  0  0  0  0
  3  8  1  0  0  0  0
  4  5  1  0  0  0  0
  4  3  2  0  0  0  0
  5  6  2  0  0  0  0
  6 33  1  0  0  0  0
  6  7  1  0  0  0  0
  7 34  1  0  0  0  0
  8  7  2  0  0  0  0
  8 35  1  0  0  0  0
  9 10  1  0  0  0  0
  9  5  1  0  0  0  0
 10 38  1  0  0  0  0
 10 37  1  0  0  0  0
 11  4  1  0  0  0  0
 12 39  1  0  0  0  0
 12 11  2  0  0  0  0
 13 12  1  0  0  0  0
 14 13  2  0  0  0  0
 14 15  1  0  0  0  0
 15 16  2  0  0  0  0
 16 11  1  0  0  0  0
 16 17  1  0  0  0  0
 17 24  1  0  0  0  0
 18 17  1  0  0  0  0
 18 19  1  0  0  0  0
 19 45  1  0  0  0  0
 20 19  1  0  0  0  0
 20 21  1  0  0  0  0
 20 46  1  0  0  0  0
 21 49  1  0  0  0  0
 22 21  1  0  0  0  0
 22 51  1  0  0  0  0
 23 18  1  0  0  0  0
 23 22  1  0  0  0  0
 24 25  1  0  0  0  0
 24 54  1  0  0  0  0
 25 55  1  0  0  0  0
 25 56  1  0  0  0  0
 26 57  1  0  0  0  0
 26 25  1  0  0  0  0
 27 28  1  0  0  0  0
 27 26  1  0  0  0  0
 27 59  1  0  0  0  0
 28 61  1  0  0  0  0
 29 28  1  0  0  0  0
 29 63  1  0  0  0  0
 29 24  1  0  0  0  0
 31  1  1  0  0  0  0
 36 10  1  0  0  0  0
 40 13  1  0  0  0  0
 41 14  1  0  0  0  0
 42 15  1  0  0  0  0
 43 18  1  0  0  0  0
 44 19  1  0  0  0  0
 47 20  1  0  0  0  0
 48 21  1  0  0  0  0
 50 22  1  0  0  0  0
 52 23  1  0  0  0  0
 53 23  1  0  0  0  0
 58 26  1  0  0  0  0
 60 27  1  0  0  0  0
 62 28  1  0  0  0  0
 64 29  1  0  0  0  0
M  END
$$$$
