XPhos
 OpenBabel07172116153D

 83 86  0  0  0  0  0  0  0  0999 V2000
    5.8513    0.9214    2.4388 C   0  0  0  0  0  0  0  0  0  0  0  0
    4.5456    1.7278    2.3279 C   0  0  0  0  0  0  0  0  0  0  0  0
    3.8630    1.8656    3.6998 C   0  0  0  0  0  0  0  0  0  0  0  0
    3.6035    1.1490    1.2828 C   0  0  0  0  0  0  0  0  0  0  0  0
    3.2485    1.8809    0.1572 C   0  0  0  0  0  0  0  0  0  0  0  0
    2.3758    1.4042   -0.8331 C   0  0  0  0  0  0  0  0  0  0  0  0
    1.7849    0.1286   -0.6481 C   0  0  0  0  0  0  0  0  0  0  0  0
    2.1835   -0.6575    0.4629 C   0  0  0  0  0  0  0  0  0  0  0  0
    3.0747   -0.1345    1.3986 C   0  0  0  0  0  0  0  0  0  0  0  0
    1.7455   -2.1119    0.6172 C   0  0  0  0  0  0  0  0  0  0  0  0
    2.8174   -3.0574    0.0397 C   0  0  0  0  0  0  0  0  0  0  0  0
    1.4030   -2.5023    2.0635 C   0  0  0  0  0  0  0  0  0  0  0  0
    0.7982   -0.4244   -1.6501 C   0  0  0  0  0  0  0  0  0  0  0  0
    1.3164   -0.9130   -2.8598 C   0  0  0  0  0  0  0  0  0  0  0  0
    0.4973   -1.3500   -3.8946 C   0  0  0  0  0  0  0  0  0  0  0  0
   -0.8846   -1.3021   -3.7387 C   0  0  0  0  0  0  0  0  0  0  0  0
   -1.4163   -0.8769   -2.5260 C   0  0  0  0  0  0  0  0  0  0  0  0
   -0.6083   -0.4626   -1.4553 C   0  0  0  0  0  0  0  0  0  0  0  0
   -1.3708   -0.1512    0.2337 P   0  0  0  0  0  0  0  0  0  0  0  0
   -2.5379   -1.6550    0.3433 C   0  0  0  0  0  0  0  0  0  0  0  0
   -1.8385   -3.0146    0.1936 C   0  0  0  0  0  0  0  0  0  0  0  0
   -2.8723   -4.1576    0.0694 C   0  0  0  0  0  0  0  0  0  0  0  0
   -4.1312   -3.9160    0.9349 C   0  0  0  0  0  0  0  0  0  0  0  0
   -3.7974   -3.0264    2.1354 C   0  0  0  0  0  0  0  0  0  0  0  0
   -3.3330   -1.6239    1.6802 C   0  0  0  0  0  0  0  0  0  0  0  0
   -2.7017    1.1873   -0.0594 C   0  0  0  0  0  0  0  0  0  0  0  0
   -3.1050    1.8242    1.3036 C   0  0  0  0  0  0  0  0  0  0  0  0
   -3.7079    3.2409    1.1546 C   0  0  0  0  0  0  0  0  0  0  0  0
   -4.4707    3.3842   -0.1647 C   0  0  0  0  0  0  0  0  0  0  0  0
   -3.5132    3.2107   -1.3650 C   0  0  0  0  0  0  0  0  0  0  0  0
   -2.3061    2.3005   -1.0371 C   0  0  0  0  0  0  0  0  0  0  0  0
    2.2764    2.3305   -2.0606 C   0  0  0  0  0  0  0  0  0  0  0  0
    3.3508    1.9756   -3.1106 C   0  0  0  0  0  0  0  0  0  0  0  0
    0.9132    2.5390   -2.7290 C   0  0  0  0  0  0  0  0  0  0  0  0
    5.6647   -0.0970    2.7922 H   0  0  0  0  0  0  0  0  0  0  0  0
    6.5409    1.3935    3.1454 H   0  0  0  0  0  0  0  0  0  0  0  0
    6.3560    0.8484    1.4720 H   0  0  0  0  0  0  0  0  0  0  0  0
    4.8133    2.7374    1.9930 H   0  0  0  0  0  0  0  0  0  0  0  0
    2.9520    2.4654    3.6306 H   0  0  0  0  0  0  0  0  0  0  0  0
    4.5317    2.3466    4.4205 H   0  0  0  0  0  0  0  0  0  0  0  0
    3.5850    0.8892    4.1075 H   0  0  0  0  0  0  0  0  0  0  0  0
    3.6785    2.8713    0.0277 H   0  0  0  0  0  0  0  0  0  0  0  0
    3.3635   -0.7492    2.2440 H   0  0  0  0  0  0  0  0  0  0  0  0
    0.8433   -2.2572    0.0235 H   0  0  0  0  0  0  0  0  0  0  0  0
    3.0218   -2.8357   -1.0106 H   0  0  0  0  0  0  0  0  0  0  0  0
    3.7600   -2.9659    0.5878 H   0  0  0  0  0  0  0  0  0  0  0  0
    2.4910   -4.1005    0.1047 H   0  0  0  0  0  0  0  0  0  0  0  0
    0.6745   -1.8135    2.4971 H   0  0  0  0  0  0  0  0  0  0  0  0
    2.2845   -2.5130    2.7106 H   0  0  0  0  0  0  0  0  0  0  0  0
    0.9796   -3.5107    2.0929 H   0  0  0  0  0  0  0  0  0  0  0  0
    2.3928   -0.9402   -2.9854 H   0  0  0  0  0  0  0  0  0  0  0  0
    0.9364   -1.7159   -4.8174 H   0  0  0  0  0  0  0  0  0  0  0  0
   -1.5433   -1.6144   -4.5432 H   0  0  0  0  0  0  0  0  0  0  0  0
   -2.4952   -0.8812   -2.4072 H   0  0  0  0  0  0  0  0  0  0  0  0
   -3.2565   -1.5650   -0.4805 H   0  0  0  0  0  0  0  0  0  0  0  0
   -1.1838   -3.0301   -0.6798 H   0  0  0  0  0  0  0  0  0  0  0  0
   -1.1992   -3.1857    1.0643 H   0  0  0  0  0  0  0  0  0  0  0  0
   -2.3938   -5.0995    0.3589 H   0  0  0  0  0  0  0  0  0  0  0  0
   -3.1637   -4.2764   -0.9797 H   0  0  0  0  0  0  0  0  0  0  0  0
   -4.5571   -4.8691    1.2632 H   0  0  0  0  0  0  0  0  0  0  0  0
   -4.9106   -3.4279    0.3377 H   0  0  0  0  0  0  0  0  0  0  0  0
   -4.6603   -2.9291    2.8018 H   0  0  0  0  0  0  0  0  0  0  0  0
   -3.0107   -3.5059    2.7293 H   0  0  0  0  0  0  0  0  0  0  0  0
   -4.2087   -0.9794    1.5611 H   0  0  0  0  0  0  0  0  0  0  0  0
   -2.7259   -1.1736    2.4729 H   0  0  0  0  0  0  0  0  0  0  0  0
   -3.5748    0.6738   -0.4816 H   0  0  0  0  0  0  0  0  0  0  0  0
   -3.8254    1.1763    1.8087 H   0  0  0  0  0  0  0  0  0  0  0  0
   -2.2305    1.8724    1.9600 H   0  0  0  0  0  0  0  0  0  0  0  0
   -4.3593    3.4550    2.0078 H   0  0  0  0  0  0  0  0  0  0  0  0
   -2.9108    3.9929    1.1891 H   0  0  0  0  0  0  0  0  0  0  0  0
   -4.9779    4.3525   -0.2191 H   0  0  0  0  0  0  0  0  0  0  0  0
   -5.2626    2.6267   -0.2022 H   0  0  0  0  0  0  0  0  0  0  0  0
   -3.1406    4.1881   -1.6906 H   0  0  0  0  0  0  0  0  0  0  0  0
   -4.0628    2.7973   -2.2176 H   0  0  0  0  0  0  0  0  0  0  0  0
   -1.9021    1.8868   -1.9610 H   0  0  0  0  0  0  0  0  0  0  0  0
   -1.5032    2.8953   -0.5881 H   0  0  0  0  0  0  0  0  0  0  0  0
    2.5586    3.3169   -1.6752 H   0  0  0  0  0  0  0  0  0  0  0  0
    4.3381    1.8743   -2.6531 H   0  0  0  0  0  0  0  0  0  0  0  0
    3.4106    2.7620   -3.8701 H   0  0  0  0  0  0  0  0  0  0  0  0
    3.1210    1.0412   -3.6260 H   0  0  0  0  0  0  0  0  0  0  0  0
    0.5470    1.6546   -3.2489 H   0  0  0  0  0  0  0  0  0  0  0  0
    0.9987    3.3415   -3.4691 H   0  0  0  0  0  0  0  0  0  0  0  0
    0.1614    2.8433   -2.0029 H   0  0  0  0  0  0  0  0  0  0  0  0
  1 35  1  0  0  0  0
  1 36  1  0  0  0  0
  2  1  1  0  0  0  0
  2  3  1  0  0  0  0
  3 41  1  0  0  0  0
  3 40  1  0  0  0  0
  4  9  1  0  0  0  0
  4  2  1  0  0  0  0
  5  4  2  0  0  0  0
  6  7  2  0  0  0  0
  6  5  1  0  0  0  0
  7  8  1  0  0  0  0
  8 10  1  0  0  0  0
  8  9  2  0  0  0  0
  9 43  1  0  0  0  0
 10 12  1  0  0  0  0
 11 47  1  0  0  0  0
 11 46  1  0  0  0  0
 11 10  1  0  0  0  0
 12 50  1  0  0  0  0
 12 48  1  0  0  0  0
 12 49  1  0  0  0  0
 13 18  1  0  0  0  0
 13  7  1  0  0  0  0
 14 13  2  0  0  0  0
 15 16  2  0  0  0  0
 15 14  1  0  0  0  0
 16 17  1  0  0  0  0
 17 54  1  0  0  0  0
 17 18  2  0  0  0  0
 18 19  1  0  0  0  0
 19 20  1  0  0  0  0
 20 25  1  0  0  0  0
 21 20  1  0  0  0  0
 21 57  1  0  0  0  0
 22 21  1  0  0  0  0
 22 58  1  0  0  0  0
 22 23  1  0  0  0  0
 23 60  1  0  0  0  0
 23 24  1  0  0  0  0
 24 63  1  0  0  0  0
 24 62  1  0  0  0  0
 25 24  1  0  0  0  0
 25 65  1  0  0  0  0
 26 19  1  0  0  0  0
 26 27  1  0  0  0  0
 27 67  1  0  0  0  0
 27 68  1  0  0  0  0
 28 70  1  0  0  0  0
 28 27  1  0  0  0  0
 28 69  1  0  0  0  0
 29 28  1  0  0  0  0
 30 31  1  0  0  0  0
 30 29  1  0  0  0  0
 31 76  1  0  0  0  0
 31 26  1  0  0  0  0
 32 77  1  0  0  0  0
 32  6  1  0  0  0  0
 33 78  1  0  0  0  0
 33 32  1  0  0  0  0
 34 32  1  0  0  0  0
 34 83  1  0  0  0  0
 37  1  1  0  0  0  0
 38  2  1  0  0  0  0
 39  3  1  0  0  0  0
 42  5  1  0  0  0  0
 44 10  1  0  0  0  0
 45 11  1  0  0  0  0
 51 14  1  0  0  0  0
 52 15  1  0  0  0  0
 53 16  1  0  0  0  0
 55 20  1  0  0  0  0
 56 21  1  0  0  0  0
 59 22  1  0  0  0  0
 61 23  1  0  0  0  0
 64 25  1  0  0  0  0
 66 26  1  0  0  0  0
 71 29  1  0  0  0  0
 72 29  1  0  0  0  0
 73 30  1  0  0  0  0
 74 30  1  0  0  0  0
 75 31  1  0  0  0  0
 79 33  1  0  0  0  0
 80 33  1  0  0  0  0
 81 34  1  0  0  0  0
 82 34  1  0  0  0  0
M  END
$$$$
